data/Kozienice.m
function mpc = Kozienice
%% MATPOWER Case Format : Version 2
mpc.version = '2';

%%-----  Power Flow Data  -----%%
%% system MVA base
mpc.baseMVA = 100;

%% bus data
%	bus_i	type	Pd	Qd	Gs	Bs	area	Vm	Va	baseKV	zone	Vmax	Vmin	lam_P	lam_Q	mu_Vmax	mu_Vmin
mpc.bus = [
    1  3   0  0  0  0  1  1.00  0   15  2  1.12  0.95  98.1266  -0.3436  0.0000  0.0000;  %Szyna generatorowa Solina (15kV)
    2  1   0  0  0  0  1  1.00  0  110  2  1.12  0.95  98.1266  -0.3436  0.0000  0.0000;  %Wyprowadzenie mocy z Soliny 110kV
    3  1   0  0  0  0  1  1.00  0  110  2  1.12  0.95  96.4711   0.0002  0.0000  0.0000;  %Krosno Iskrzynia (110kV)
    4  1   0  0  0  0  1  1.00  0  400  2  1.05  0.95  95.6169  -0.6759  0.0000  0.0000;  %Krosno Iskrzynia (400kV)
    5  1   0  0  0  0  1  1.00  0  400  2  1.05  0.95  94.8501  -0.9534  0.0000  0.0000;  %Rzesów Widełka (400kV)
    6  1   0  0  0  0  1  1.00  0  400  2  1.05  0.95  94.4716  -1.2215  0.0000  0.0000;  %Połaniec (400kV)
    7  1   0  0  0  0  1  1.00  0  400  2  1.05  0.95  94.6638  -1.0834  0.0000  0.0000;  %Ostrowiec (400kV)
    8  1   0  0  0  0  1  1.00  0  400  2  1.05  0.95  94.5600  -0.5862  0.0000  0.0000;  %Elektrownia Kozienice (400kV)
    9  1  17  8  0  0  1  1.00  0   22  2  1.05  0.95  94.5600  -0.5862  0.0000  0.0000;  %Szyny generatorowe/potrzeby własne Kozienice (22kV)
];

%% generator data
%	bus	Pg	Qg	Qmax	Qmin	Vg	mBase	status	Pmax	Pmin	Pc1	Pc2	Qc1min	Qc1max	Qc2min	Qc2max	ramp_agc	ramp_10	ramp_30	ramp_q	apf
mpc.gen = [
    1  0  0   65  -65  1.00   71.8  1  68.7    0  0  0  0  0  0  0  0  0  0  0  0  0.0000  0.0000  0.0000  0.0000;  %Hydrozespół 1
    1  0  0   60  -60  1.00   71.8  1  68.7    0  0  0  0  0  0  0  0  0  0  0  0  0.0000  0.0000  0.0000  0.0000;  %Hydrozespół 2
    1  0  0   30  -30  1.00   23.7  1  32.8    0  0  0  0  0  0  0  0  0  0  0  0  0.0000  0.0000  0.0000  0.0000;  %Hydrozespół 3
    1  0  0   25  -25  1.00   23.3  1  29.8    0  0  0  0  0  0  0  0  0  0  0  0  0.0000  0.0000  0.0000  0.0000;  %Hydrozespół 4
    9  0  0  350  -40  1.00  610.3  0   500  350  0  0  0  0  0  0  0  0  0  0  0  0.0000  0.0000  0.0000  0.0000;  %Blok 9
    9  0  0  350  -40  1.00  610.3  0   500  350  0  0  0  0  0  0  0  0  0  0  0  0.0000  7.4900  0.0000  0.5862;  %Blok 10
];

%% branch data
%	fbus	tbus	r	x	b	rateA	rateB	rateC	ratio	angle	status	angmin	angmax	Pf	Qf	Pt	Qt	mu_Sf	mu_St	mu_angmin	mu_angmax
mpc.branch = [
    1  2  0.00105  0.06143  0.00   173   173   173  1.00  0  1  -360  360   -23.2693   21.5026   23.2818  -20.9415  0.0000  0.0000  0.0000  0.0000;
    2  3  0.08066  0.19844  0.02   173   173   173  0.00  0  1  -360  360   -23.2693   21.5026   23.2818  -20.9415  0.0000  0.0000  0.0000  0.0000;
    3  4  0.00135  0.06052  0.00   250   250   250  1.00  0  1  -360  360   -23.2693   21.5026   23.2818  -20.9415  0.0000  0.0000  0.0000  0.0000;
    4  5  0.00113  0.01406  0.33   831   831   831  0.00  0  1  -360  360  -313.2957  -67.5605  314.3687   40.8390  0.0000  0.0000  0.0000  0.0000;
    5  6  0.00094  0.01097  0.19  1552  1552  1552  0.00  0  1  -360  360  -209.7505   -1.1477  210.1353  -26.1123  0.0000  0.0000  0.0000  0.0000;
    6  7  0.00109  0.01277  0.24  1358  1358  1358  0.00  0  1  -360  360    56.0421    2.1059  -56.0062  -38.5337  0.0000  0.0000  0.0000  0.0000;
    7  8  0.00176  0.02144  0.47  1358  1358  1358  0.00  0  1  -360  360   -62.6245   -4.9449   62.6996  -55.5314  0.0000  0.0000  0.0000  0.0000;
    8  9  0.00094  0.05876  0.00  1358  1358  1358  1.00  0  1  -360  360   -62.6245   -4.9449   62.6996  -55.5314  0.0000  0.0000  0.0000  0.0000;
];

%%-----  OPF Data  -----%%
%% generator cost data
%	1	startup	shutdown	n	x1	y1	...	xn	yn
%	2	startup	shutdown	n	c(n-1)	...	c0
mpc.gencost = [
    2  0  0  3  0  112.78  0;
    2  0  0  3  0  112.78  0;
    2  0  0  3  0  112.78  0;
    2  0  0  3  0  112.78  0;
    2  0  0  3  0  112.78  0;
    2  0  0  3  0  112.78  0;
];
